test.pdb
 OpenBabel12152307333D

 39 38  0  0  0  0  0  0  0  0999 V2000
    1.4020    0.0850   -0.1830 O   0  0  0  0  0  0  0  0  0  0  0  0
    0.4980    1.8230   -0.1980 Mn  0  0  0  0  0  0  0  0  0  0  0  0
   -1.9620    2.0760    2.2570 Mn  0  0  0  0  0  0  0  0  0  0  0  0
   -1.1930    1.9530    4.0660 O   0  0  0  0  0  0  0  0  0  0  0  0
    3.5440    0.5430    1.5580 O   0  0  0  0  0  0  0  0  0  0  0  0
    3.3620   -0.0740   -0.3050 Mn  0  0  0  0  0  0  0  0  0  0  0  0
    1.9480    2.6830    0.7330 O   0  0  0  0  0  0  0  0  0  0  0  0
    1.2650    2.2450   -1.9140 O   0  0  0  0  0  0  0  0  0  0  0  0
   -2.5590    0.2540    2.4880 O   0  0  0  0  0  0  0  0  0  0  0  0
    3.5880    1.7360   -0.9090 O   0  0  0  0  0  0  0  0  0  0  0  0
   -1.3730    3.9070    2.0350 O   0  0  0  0  0  0  0  0  0  0  0  0
    3.1960   -1.9170    0.2760 O   0  0  0  0  0  0  0  0  0  0  0  0
   -2.7550    2.1400    0.4530 O   0  0  0  0  0  0  0  0  0  0  0  0
    3.1870   -0.6060   -2.1920 O   0  0  0  0  0  0  0  0  0  0  0  0
   -3.6090    2.7450    3.0220 O   0  0  0  0  0  0  0  0  0  0  0  0
    5.2820   -0.2690   -0.4130 O   0  0  0  0  0  0  0  0  0  0  0  0
   -0.3940    3.5190   -0.2660 O   0  0  0  0  0  0  0  0  0  0  0  0
   -0.9740    0.9780   -1.1100 O   0  0  0  0  0  0  0  0  0  0  0  0
   -0.2670    1.3680    1.5550 O   0  0  0  0  0  0  0  0  0  0  0  0
   -4.1200    1.7920    0.4500 C   0  0  0  0  0  0  0  0  0  0  0  0
   -4.7610    2.6310    0.8040 H   0  0  0  0  0  0  0  0  0  0  0  0
   -4.4220    1.5220   -0.5840 H   0  0  0  0  0  0  0  0  0  0  0  0
   -4.3160    0.9040    1.0760 H   0  0  0  0  0  0  0  0  0  0  0  0
   -0.4860    3.1060    4.4380 C   0  0  0  0  0  0  0  0  0  0  0  0
   -1.1590    3.9910    4.4910 H   0  0  0  0  0  0  0  0  0  0  0  0
   -0.0220    2.9490    5.4350 H   0  0  0  0  0  0  0  0  0  0  0  0
    0.3460    3.2820    3.7250 H   0  0  0  0  0  0  0  0  0  0  0  0
    2.9130   -0.3170    2.4760 C   0  0  0  0  0  0  0  0  0  0  0  0
    3.5100   -1.2400    2.6480 H   0  0  0  0  0  0  0  0  0  0  0  0
    2.7820    0.2150    3.4410 H   0  0  0  0  0  0  0  0  0  0  0  0
    1.9010   -0.5900    2.1220 H   0  0  0  0  0  0  0  0  0  0  0  0
    3.6780   -1.8990   -2.4400 C   0  0  0  0  0  0  0  0  0  0  0  0
    2.9680   -2.6810   -2.0920 H   0  0  0  0  0  0  0  0  0  0  0  0
    3.8430   -2.0190   -3.5320 H   0  0  0  0  0  0  0  0  0  0  0  0
    4.6600   -2.0460   -1.9520 H   0  0  0  0  0  0  0  0  0  0  0  0
   -1.9540    1.8760    4.6990 H   0  0  0  0  0  0  0  0  0  0  0  0
    4.5100    0.5300    1.7830 H   0  0  0  0  0  0  0  0  0  0  0  0
   -2.7350    3.0870    0.1620 H   0  0  0  0  0  0  0  0  0  0  0  0
    2.2180   -0.6280   -2.4050 H   0  0  0  0  0  0  0  0  0  0  0  0
  1  2  1  0  0  0  0
  1  6  1  0  0  0  0
  2 19  1  0  0  0  0
  2  7  1  0  0  0  0
  2 17  1  0  0  0  0
  2  8  1  0  0  0  0
  2 18  1  0  0  0  0
  3 19  1  0  0  0  0
  3 11  1  0  0  0  0
  3 13  1  0  0  0  0
  3 15  1  0  0  0  0
  3  9  1  0  0  0  0
  3  4  1  0  0  0  0
  4 24  1  0  0  0  0
  4 36  1  0  0  0  0
  5  6  1  0  0  0  0
  5 28  1  0  0  0  0
  5 37  1  0  0  0  0
  6 12  1  0  0  0  0
  6 14  1  0  0  0  0
  6 16  1  0  0  0  0
  6 10  1  0  0  0  0
 13 20  1  0  0  0  0
 13 38  1  0  0  0  0
 14 32  1  0  0  0  0
 14 39  1  0  0  0  0
 20 21  1  0  0  0  0
 20 22  1  0  0  0  0
 20 23  1  0  0  0  0
 24 25  1  0  0  0  0
 24 26  1  0  0  0  0
 24 27  1  0  0  0  0
 28 29  1  0  0  0  0
 28 30  1  0  0  0  0
 28 31  1  0  0  0  0
 32 33  1  0  0  0  0
 32 34  1  0  0  0  0
 32 35  1  0  0  0  0
M  END
